[General]
#tkenv-plugin-path = ../../../inet/etc/plugins
output-scalar-file-append = false
sim-time-limit=20s

############### Statistics ##################
#output-scalar-file = ${resultdir}/${configname}/${repetition}.sca
#output-vector-file = ${resultdir}/${configname}/${repetition}.vec
#seed-set = ${repetition}
#**.vector-recording = false

################ Mobility parameters #####################
# *
**.mobility.constraintAreaMinZ = 0m
**.mobility.constraintAreaMaxZ = 0m
**.mobility.initFromDisplayString = true

############### Number of Resource Blocks ################
**.numBands = 1 # this value should be kept equal to the number of RBs

############### Transmission Power ##################
**.ueTxPower = 26
**.eNodeBTxPower = 40
**.targetBler = 0.01
**.blerShift = 5  



############### IPv4 configurator config #################
*.configurator.config = xmldoc("./demo.xml")


[Config Classical_TeleOperatedDriving]
network = tod_network.simulations.TODNet
**.car.numApps = 1
**.server.numApps = 1

**.numUe = 1 #${numUEs=1,2,5,10,20,50,100}

#**.mobility.constraintAreaMinX = 3000m
#**.mobility.constraintAreaMinY = 0m
#**.mobility.constraintAreaMaxX = 3000m
#**.mobility.constraintAreaMaxY = 0m

*.gnb.mobility.initialX = 450m
*.gnb.mobility.initialY = 300m

**.car.masterId = 1
**.car.macCellId = 1
*.car.nrMacCellId = 1
*.car.nrMasterId = 1
#**.ue[*].mobility.initFromDisplayString = false
#**.ue[*].mobility.typename = "StationaryMobility"
**.car.app[0].typename = "TODCarApp"
**.car.app[0].destAddresses = "server"
**.car.app[0].destPort = 3000
**.car.app[0].localPort = -1
**.car.app[0].sendInterval = 0.1s
**.car.app[0].messageLength = 1000B
**.car.app[0].startTime = uniform(0s, 0.02s)
**.car.mobility.initialX = 450m
**.car.mobility.initialY = 350m

**.server.app[*].typename = "TODAgentApp"
**.server.app[*].videoSize = 10MiB
**.server.app[*].localPort = 3000
**.server.app[*].destPort = 3001
**.server.app[*].sendInterval = 20ms
#**.server.app[*].packetLen = ${packetLen = 100B, 200B, 300B, 400B, 500B, 600B, 700B, 800B, 900B, 1KiB, 1.5KiB, 2KiB, 5KiB }
**.server.app[*].packetLen = ${packetLen = 1000B }
**.mtu = 10000B



*.carlaCommunicationManager.host = "172.16.5.8"
*.carlaCommunicationManager.carlaConfiguration = "carla_conf"



